Version 4
SHEET 1 1484 680
WIRE -272 -640 -336 -640
WIRE -512 -592 -576 -592
WIRE -272 -592 -272 -640
WIRE -512 -560 -512 -592
WIRE -336 -560 -336 -640
WIRE -576 -528 -576 -592
WIRE -336 -448 -336 -496
WIRE -240 -448 -336 -448
WIRE -16 -448 -176 -448
WIRE -784 -384 -816 -384
WIRE -576 -384 -576 -464
WIRE -576 -384 -704 -384
WIRE -432 -384 -576 -384
WIRE 144 -384 -432 -384
WIRE -192 -368 -240 -368
WIRE -816 -336 -816 -384
WIRE -336 -336 -336 -448
WIRE -192 -336 -192 -368
WIRE 144 -304 144 -384
WIRE -432 -288 -432 -384
WIRE -336 -288 -336 -336
WIRE -240 -288 -240 -368
WIRE 96 -224 -144 -224
WIRE 144 -176 144 -208
WIRE 144 -176 80 -176
WIRE -688 -128 -816 -128
WIRE -528 -128 -608 -128
WIRE -16 -128 -16 -448
WIRE -16 -128 -144 -128
WIRE 16 -128 16 -176
WIRE 16 -128 -16 -128
WIRE 144 -32 144 -176
WIRE 144 -32 -144 -32
WIRE 304 -32 144 -32
WIRE 448 -32 384 -32
WIRE 464 -32 448 -32
WIRE 576 -32 544 -32
WIRE 656 -32 576 -32
WIRE 816 -32 656 -32
WIRE 960 -32 816 -32
WIRE 1024 -32 960 -32
WIRE 144 -16 144 -32
WIRE 816 16 816 -32
WIRE 960 16 960 -32
WIRE -688 64 -880 64
WIRE -528 64 -608 64
WIRE 96 64 -144 64
WIRE 656 80 656 -32
WIRE 816 144 816 80
WIRE 960 144 960 96
WIRE 448 160 448 -32
WIRE 448 160 -144 160
WIRE -880 256 -880 64
WIRE -672 256 -880 256
WIRE -528 256 -608 256
WIRE 576 256 576 -32
WIRE 576 256 -144 256
WIRE -880 352 -880 256
WIRE -816 352 -880 352
WIRE -688 352 -752 352
WIRE -560 352 -608 352
WIRE -528 352 -560 352
WIRE 656 352 656 160
WIRE 656 352 -144 352
WIRE 656 400 656 352
WIRE -880 432 -880 352
WIRE -672 432 -880 432
WIRE -560 432 -560 352
WIRE -560 432 -608 432
WIRE -256 512 -256 416
WIRE 144 512 144 80
WIRE 144 512 -256 512
WIRE 656 544 656 480
WIRE -880 560 -880 432
WIRE -416 560 -416 416
WIRE -256 560 -256 512
FLAG -272 -592 0
FLAG -256 560 0
FLAG -816 -336 0
FLAG -512 -560 0
FLAG -416 560 0
FLAG -880 560 0
FLAG 816 144 0
FLAG 656 544 0
FLAG 1024 -32 Vout
FLAG -816 -128 INTVCC
FLAG -336 -336 INTVCC
FLAG 960 144 0
FLAG -192 -336 0
SYMBOL schottky -240 -432 R270
WINDOW 0 32 32 VTop 2
WINDOW 3 0 32 VBottom 2
SYMATTR InstName D2
SYMATTR Value CMDSH2-3
SYMATTR Description Zener Diode
SYMATTR Type zener
SYMBOL LTC3807 -336 64 R0
SYMATTR InstName U1
SYMBOL cap -352 -560 R0
SYMATTR InstName C1
SYMATTR Value 2.2µ
SYMBOL cap 80 -192 R90
WINDOW 0 0 32 VBottom 2
WINDOW 3 32 32 VTop 2
SYMATTR InstName C2
SYMATTR Value 0.1µ
SYMBOL voltage -688 -384 R90
WINDOW 0 -32 56 VBottom 2
WINDOW 3 32 56 VTop 2
WINDOW 123 0 0 Left 0
WINDOW 39 0 0 Left 0
SYMATTR InstName V1
SYMATTR Value 5
SYMBOL cap -592 -528 R0
SYMATTR InstName C3
SYMATTR Value 22µ
SYMBOL res -592 -144 R90
WINDOW 0 0 56 VBottom 2
WINDOW 3 32 56 VTop 2
SYMATTR InstName R1
SYMATTR Value 100k
SYMBOL cap -608 240 R90
WINDOW 0 0 32 VBottom 2
WINDOW 3 32 32 VTop 2
SYMATTR InstName C4
SYMATTR Value 0.1µ
SYMBOL cap -608 416 R90
WINDOW 0 0 32 VBottom 2
WINDOW 3 32 32 VTop 2
SYMATTR InstName C5
SYMATTR Value 47p
SYMBOL res -592 336 R90
WINDOW 0 0 56 VBottom 2
WINDOW 3 32 56 VTop 2
SYMATTR InstName R2
SYMATTR Value 15.4k
SYMBOL cap -752 336 R90
WINDOW 0 0 32 VBottom 2
WINDOW 3 32 32 VTop 2
SYMATTR InstName C6
SYMATTR Value 4.7n
SYMBOL res -592 48 R90
WINDOW 0 0 56 VBottom 2
WINDOW 3 32 56 VTop 2
SYMATTR InstName R3
SYMATTR Value 60.4k
SYMBOL ind 288 -16 R270
WINDOW 0 32 56 VTop 2
WINDOW 3 5 56 VBottom 2
SYMATTR InstName L1
SYMATTR Value 4.44µ
SYMATTR SpiceLine Rser=1.5m
SYMBOL res 560 -48 R90
WINDOW 0 0 56 VBottom 2
WINDOW 3 32 56 VTop 2
SYMATTR InstName R4
SYMATTR Value 20m
SYMBOL res 672 176 R180
WINDOW 0 36 76 Left 2
WINDOW 3 36 40 Left 2
SYMATTR InstName R5
SYMATTR Value 100k
SYMBOL res 672 496 R180
WINDOW 0 36 76 Left 2
WINDOW 3 36 40 Left 2
SYMATTR InstName R6
SYMATTR Value 400k
SYMBOL cap 800 16 R0
SYMATTR InstName C7
SYMATTR Value 150µ
SYMATTR SpiceLine Rser=5m
SYMBOL res 944 0 R0
SYMATTR InstName R7
SYMATTR Value {RL}
SYMBOL nmos 96 -304 R0
SYMATTR InstName M1
SYMATTR Value IRF7413ZPbF
SYMBOL nmos 96 -16 R0
SYMATTR InstName M2
SYMATTR Value IRF7413ZPbF
TEXT 784 -464 Left 2 !.meas tran V_ut AVG V(Vout) from 9m\n.meas tran V_rippel pp V(Vout) from 9m\n.meas tran V_offset PARAM V_ut-12
TEXT 784 -328 Left 2 !.meas tran P_IN AVG -24*I(V1) from 9m\n.meas tran P_OUT AVG V(Vout)**2/RL from 9m\n.meas tran P_LOSS PARAM P_IN-P_OUT\n.meas tran Efektivitet PARAM P_OUT*100/P_IN
TEXT 432 -464 Left 2 ;Beregn DC-utgangspenning:\nBeregn rippelspenning:\nBeregn offset-spenning:
TEXT 432 -328 Left 2 ;Beregn inngangseffekt:\nBeregn utgangseffekt:\nBeregn tapseffekt:\nBeregn effektivitet:
TEXT 432 -552 Left 2 ;Søk etter kommandoen ".meas" i meny "Help->Help Topics" for mer detaljer.\nFinn beregningsresultater etter at simulering fullføres: "View->SPICE Error Log"
TEXT 1024 136 Left 2 !.step param RL list 0.5 1 100 10
TEXT 944 248 Left 2 !.tran 10m startup
